GridLAB-D/Modified 6-Node PV Case/GLD Results/test_assets_curr.csv
# test_assets_curr.csv run at 2000-01-01 00:00:00 EST on 27 links
link_name,currA_mag,currA_angle,currB_mag,currB_angle,currC_mag,currC_angle
overhead_line:10,363.125279,-0.657956,359.385879,3.559873,375.339970,1.461556
transformer:12,364.204079,-0.661539,360.026995,3.564225,373.665140,1.460919
overhead_line:14,1142.205168,-1.169208,1051.384136,3.036458,1097.150565,0.926252
overhead_line:17,72.713525,-1.546687,66.192637,2.658295,69.486317,0.548021
overhead_line:19,121.100701,-1.150719,110.889620,3.055419,116.042196,0.944650
xmf_node_5,60.860655,2.469791,56.038123,0.388280,58.475543,4.563171
swt_node_5_pv,527.459009,2.469791,485.663736,0.388280,506.788038,4.563171
